# $Id: Makefile.roms.in,v 1.5 2010/07/12 22:54:33 haiqinli Exp $
#::::::::::::::::::::::::::::::::::::::::::::::::::::: Hernan G. Arango :::
# Copyright (c) 2002-2008 The ROMS/TOMS Group             Kate Hedstrom :::
#   Licensed under a MIT/X style license                                :::
#   See License_ROMS.txt                                                :::
#::::::::::::::::::::::::::::::::::::::::::::::::::::::::::::::::::::::::::
#                                                                       :::
#  ROMS/TOMS Framework Master Makefile                                  :::
#                                                                       :::
#  This makefile is designed to work only with GNU Make version 3.80 or :::
#  higher.                                                              :::
#  All the necessary variables are set by configure-model   (kana)      :::
#                                                                       :::
#::::::::::::::::::::::::::::::::::::::::::::::::::::::::::::::::::::::::::

NEED_VERSION := 3.80 3.81
$(if $(filter $(MAKE_VERSION),$(NEED_VERSION)),,        \
 $(error This makefile requires one of GNU make version $(NEED_VERSION).))

#--------------------------------------------------------------------------
#  Initialize some things.
#--------------------------------------------------------------------------

  sources    := 
  libraries  :=

#==========================================================================
#  Start of user-defined options. In some macro definitions below: "on" or
#  any other string means TRUE while blank (or spaces) is FALSE.
#==========================================================================
#

ROMS_APPLICATION ?= @ROMS_APPLICATION@

#  If application header files is not located in "ROMS/Include",
#  provide an alternate directory FULL PATH.

MY_HEADER_DIR ?=

#  If your application requires analytical expressions and they are not
#  located in "ROMS/Functionals", provide an alternate directory.
#  Notice that a set analytical expressions templates can be found in
#  "User/Functionals".

MY_ANALYTICAL_DIR ?=

#  Sometimes it is desirable to activate one or more CPP options to
#  run different variants of the same application without modifying
#  its header file. If this is the case, specify such options here
#  using the -D syntax.  For example, to write time-averaged fields
#  set:
#
#    MY_CPP_FLAGS ?= -DAVERAGES
#

MY_CPP_FLAGS ?=

#  Set number of ROMS nested and/or composed grid.  Currently, only
#  one grid is supported.  This option will be available in the near
#  future.

 NestedGrids ?= 1

#  Activate debugging compiler options:

   USE_DEBUG ?=

#--------------------------------------------------------------------------
#  We are going to include a file with all the settings that depend on
#  the system and the compiler. We are going to build up the name of the
#  include file using information on both. Set your compiler here from
#  the following list:
#
#  Operating System        Compiler(s)
#
#     AIX:                    xlf
#     ALPHA:                  f90
#     CYGWIN:                 g95, df, ifort
#     Darwin:                 f90, xlf
#     IRIX:                   f90
#     Linux:                  ftn, ifc, ifort, pgi, path, g95, gfortran
#     SunOS:                  f95
#     UNICOS-mp:              ftn
#     SunOS/Linux:            ftn (Cray cross-compiler)
#
#  Feel free to send us additional rule files to include! Also, be sure
#  to check the appropriate file to make sure it has the right paths to
#  NetCDF and so on.
#--------------------------------------------------------------------------

        FORT ?= compiler

#--------------------------------------------------------------------------
#  Set directory for executable.
#--------------------------------------------------------------------------

      BINDIR ?= ./bin

#==========================================================================
#  End of user-defined options. See also the machine-dependent include
#  file being used above.
#==========================================================================

#--------------------------------------------------------------------------
#  Set directory for temporary objects.
#--------------------------------------------------------------------------

SCRATCH_DIR ?= ./Build
 clean_list := core *.ipo $(SCRATCH_DIR) $(BINDIR)

ifeq "$(strip $(SCRATCH_DIR))" "."
  clean_list := core *.o *.oo *.mod *.f90 lib*.a *.bak $(BINDIR)
  clean_list += $(CURDIR)/*.ipo
endif
ifeq "$(strip $(SCRATCH_DIR))" "./"
  clean_list := core *.o *.oo *.ipo *.mod *.f90 lib*.a *.bak $(BINDIR)
  clean_list += $(CURDIR)/*.ipo
endif

#--------------------------------------------------------------------------
#  Set Pattern rules.
#--------------------------------------------------------------------------

%.o: %.F

%.o: %.f90
	cd $(SCRATCH_DIR); $(FC) -c $(FFLAGS) $(notdir $<)

%.f90: %.F
	$(CPP) $(CPPFLAGS) $(MY_CPP_FLAGS) $< > $*.f90
	$(CLEAN) $*.f90

CLEAN := ROMS/Bin/cpp_clean

#--------------------------------------------------------------------------
#  Set C-preprocessing flags associated with ROMS application. They are
#  used in "ROMS/Include/cppdefs.h" to include the appropriate application
#  header file.
#--------------------------------------------------------------------------

ifdef ROMS_APPLICATION
        HEADER := $(addsuffix .h, \
			$(shell echo ${ROMS_APPLICATION} | tr [A-Z] [a-z]))
 ROMS_CPPFLAGS := -D$(ROMS_APPLICATION)
 ROMS_CPPFLAGS += -D'HEADER="$(HEADER)"'
 ifdef MY_HEADER_DIR
  ROMS_CPPFLAGS += -D'ROMS_HEADER="$(MY_HEADER_DIR)/$(HEADER)"'
 else
  ROMS_CPPFLAGS += -D'ROMS_HEADER="$(HEADER)"'
 endif
 ifdef MY_CPP_FLAGS
  ROMS_CPPFLAGS += $(MY_CPP_FLAGS)
 endif
endif

#--------------------------------------------------------------------------
#  Internal macro definitions used to select the code to compile and
#  additional libraries to link. It uses the CPP activated in the
#  header file ROMS/Include/cppdefs.h to determine macro definitions.
#--------------------------------------------------------------------------

MAKE_MACROS := Compilers/make_macros.mk

ifneq "$(MAKECMDGOALS)" "clean"
 MACROS := $(shell cpp -P $(ROMS_CPPFLAGS) Compilers/make_macros.h > \
		$(MAKE_MACROS); $(CLEAN) $(MAKE_MACROS))

 GET_MACROS := $(wildcard $(SCRATCH_DIR)/make_macros.*)

 ifdef GET_MACROS
  include $(SCRATCH_DIR)/make_macros.mk
  $(if ,, $(warning INCLUDING FILE $(SCRATCH_DIR)/make_macros.mk \
                    WHICH CONTAINS APPLICATION-DEPENDENT MAKE DEFINITIONS))
 else
  include $(MAKE_MACROS)
  $(if ,, $(warning INCLUDING FILE $(MAKE_MACROS) \
                   WHICH CONTAINS APPLICATION-DEPENDENT MAKE DEFINITIONS))
 endif
endif

clean_list += $(MAKE_MACROS)

#--------------------------------------------------------------------------
#  Make functions for putting the temporary files in $(SCRATCH_DIR)
#  DO NOT modify this section; spaces and blank lineas are needed.
#--------------------------------------------------------------------------

# $(call source-dir-to-binary-dir, directory-list)
source-dir-to-binary-dir = $(addprefix $(SCRATCH_DIR)/, $(notdir $1))

# $(call source-to-object, source-file-list)
source-to-object = $(call source-dir-to-bindary-dir,   \
                   $(subst .F,.o,$1))

# $(call make-library, library-name, source-file-list)
define make-library
   libraries += $(SCRATCH_DIR)/$1
   sources   += $2

   $(SCRATCH_DIR)/$1: $(call source-dir-to-binary-dir,    \
                      $(subst .F,.o,$2))
	$(AR) $(ARFLAGS) $$@ $$^
	$(RANLIB) $$@
endef

# $(call f90-source, source-file-list)
f90-source = $(call source-dir-to-binary-dir,     \
                   $(subst .F,.f90,$1))

# $(compile-rules)
define compile-rules
  $(foreach f, $(local_src),       \
    $(call one-compile-rule,$(call source-to-object,$f), \
    $(call f90-source,$f),$f))
endef

# $(call one-compile-rule, binary-file, f90-file, source-files)
define one-compile-rule
  $1: $2 $3
	cd $$(SCRATCH_DIR); $$(FC) -c $$(FFLAGS) $(notdir $2)

  $2: $3
	$$(CPP) $$(CPPFLAGS) $$(MY_CPP_FLAGS) $$< > $$@
	$$(CLEAN) $$@

endef

#--------------------------------------------------------------------------
#  Set ROMS/TOMS executable file name.
#--------------------------------------------------------------------------

BIN := $(BINDIR)/roms.x

#--------------------------------------------------------------------------
#  Set name of module files for netCDF F90 interface. On some platforms
#  these will need to be overridden in the machine-dependent include file.
#--------------------------------------------------------------------------

   NETCDF_MODFILE := netcdf.mod
TYPESIZES_MODFILE := typesizes.mod

#--------------------------------------------------------------------------
#  "uname -s" should return the OS or kernel name and "uname -m" should
#  return the CPU or hardware name. In practice the results can be pretty
#  flaky. Run the results through sed to convert "/" and " " to "-",
#  then apply platform-specific conversions.
#--------------------------------------------------------------------------

OS := $(shell uname -s | sed 's/[\/ ]/-/g')
OS := $(patsubst CYGWIN_%,CYGWIN,$(OS))
OS := $(patsubst MINGW%,MINGW,$(OS))
OS := $(patsubst sn%,UNICOS-sn,$(OS))

CPU := $(shell uname -m | sed 's/[\/ ]/-/g')

SVNREV ?= $(shell svnversion -n .)

ROOTDIR := $(shell pwd)

COMPILERS := ./Compilers

ifndef FORT
  $(error Variable FORT not set)
endif

ifneq "$(MAKECMDGOALS)" "clean"
  include $(COMPILERS)/$(strip $(FORT)).mk
endif

ifdef USE_MPI
 ifdef USE_OpenMP
  $(error You cannot activate USE_MPI and USE_OpenMP at the same time!)
 endif
endif

#--------------------------------------------------------------------------
#  Pass the platform variables to the preprocessor as macros. Convert to
#  valid, upper-case identifiers. Attach ROMS application  CPP options.
#--------------------------------------------------------------------------

CPPFLAGS += -D$(shell echo ${OS} | tr "-" "_" | tr [a-z] [A-Z])
CPPFLAGS += -D$(shell echo ${CPU} | tr "-" "_" | tr [a-z] [A-Z])
CPPFLAGS += -D$(shell echo ${FORT} | tr "-" "_" | tr [a-z] [A-Z])

CPPFLAGS += -D'ROOT_DIR="$(ROOTDIR)"'
ifdef ROMS_APPLICATION
  CPPFLAGS  += $(ROMS_CPPFLAGS)
  CPPFLAGS  += -DNestedGrids=$(NestedGrids)
  MDEPFLAGS += -DROMS_HEADER="$(HEADER)"
endif

ifndef MY_ANALYTICAL_DIR
  MY_ANALYTICAL_DIR := $(ROOTDIR)/ROMS/Functionals
endif
ifeq (,$(findstring ROMS/Functionals,$(MY_ANALYTICAL_DIR)))
  MY_ANALYTICAL := on
endif
CPPFLAGS += -D'ANALYTICAL_DIR="$(MY_ANALYTICAL_DIR)"'

ifdef MY_ANALYTICAL
  CPPFLAGS += -D'MY_ANALYTICAL="$(MY_ANALYTICAL)"'
endif

ifdef SVNREV
  CPPFLAGS += -D'SVN_REV="$(SVNREV)"'
else
  SVNREV := $(shell grep Revision ./ROMS/Version | sed 's/.* \([0-9]*\) .*/\1/')
  CPPFLAGS += -D'SVN_REV="$(SVNREV)"'
endif  

#--------------------------------------------------------------------------
#  Build target directories.
#--------------------------------------------------------------------------

.PHONY: all

all: $(SCRATCH_DIR) $(SCRATCH_DIR)/MakeDepend $(BINDIR) gridpak initial boundary forcing utils rmtn $(BIN) rm_macros

 modules  :=
ifdef USE_ADJOINT
 modules  +=	ROMS/Adjoint
endif
ifdef USE_REPRESENTER
 modules  +=	ROMS/Representer
endif
ifdef USE_SEAICE
 modules  +=	ROMS/SeaIce
endif
ifdef USE_TANGENT
 modules  +=	ROMS/Tangent
endif
 modules  +=	ROMS/Nonlinear \
		ROMS/Functionals \
		ROMS/Utility \
		ROMS/Modules

 includes :=	ROMS/Include
ifdef USE_ADJOINT
 includes +=	ROMS/Adjoint
endif
ifdef USE_REPRESENTER
 includes +=	ROMS/Representer
endif
ifdef USE_SEAICE
 includes +=	ROMS/SeaIce
endif
ifdef USE_TANGENT
 includes +=	ROMS/Tangent
endif
 includes +=	ROMS/Nonlinear \
		ROMS/Utility \
		ROMS/Drivers

ifdef MY_ANALYTICAL
 includes +=	$(MY_ANALYTICAL_DIR)
endif
 includes +=    ROMS/Functionals

ifdef MY_HEADER_DIR
 includes +=	$(MY_HEADER_DIR)
endif

ifdef USE_SWAN
 modules  +=	Waves/SWAN/Src
 includes +=	Waves/SWAN/Src
endif

 modules  +=	Master
 includes +=	Master Compilers

vpath %.F $(modules)
vpath %.h $(includes)
vpath %.f90 $(SCRATCH_DIR)
vpath %.o $(SCRATCH_DIR)

include $(addsuffix /Module.mk,$(modules))

MDEPFLAGS += $(patsubst %,-I %,$(includes)) --silent --moddir $(SCRATCH_DIR)

CPPFLAGS += $(patsubst %,-I%,$(includes))

ifdef MY_HEADER_DIR
  CPPFLAGS += -D'HEADER_DIR="$(MY_HEADER_DIR)"'
else
  CPPFLAGS += -D'HEADER_DIR="./ROMS/Include"'
endif

$(SCRATCH_DIR):
	$(shell $(TEST) -d $(SCRATCH_DIR) || $(MKDIR) $(SCRATCH_DIR) )

$(BINDIR):
	$(shell $(TEST) -d $(BINDIR) || $(MKDIR) $(BINDIR) )

gridpak:
	cd Gridpak ; make -e

initial:
	cd Initial ; make -e

boundary:
	cd Boundary ; make -e

forcing:
	cd Forcing ; make -e

rmtn:
	cd src/rmtn ; make -e

utils:
	cd Utils ; make -e

#--------------------------------------------------------------------------
#  Add profiling.
#--------------------------------------------------------------------------

# FFLAGS += -check bounds                 # ifort
# FFLAGS += -C                            # pgi
# FFLAGS += -xpg                          # Sun
# FFLAGS += -pg                           # g95
# FFLAGS += -qp                           # ifort
# FFLAGS += -Mprof=func,lines             # pgi
# FFLAGS += -Mprof=mpi,lines              # pgi
# FFLAGS += -Mprof=mpi,hwcts              # pgi
# FFLAGS += -Mprof=func                   # pgi

#--------------------------------------------------------------------------
#  Special CPP macros for mod_strings.F
#--------------------------------------------------------------------------

$(SCRATCH_DIR)/mod_strings.f90: CPPFLAGS += -DMY_OS='"$(OS)"' \
              -DMY_CPU='"$(CPU)"' -DMY_FORT='"$(FORT)"' \
              -DMY_FC='"$(FC)"' -DMY_FFLAGS='"$(FFLAGS)"'

#--------------------------------------------------------------------------
#  ROMS/TOMS libraries.
#--------------------------------------------------------------------------

MYLIB := libocean.a

.PHONY: libraries

libraries: $(libraries)

#--------------------------------------------------------------------------
#  Target to create ROMS/TOMS dependecies.
#--------------------------------------------------------------------------

$(SCRATCH_DIR)/$(NETCDF_MODFILE): | $(SCRATCH_DIR)
	cp -f $(NETCDF_INCDIR)/$(NETCDF_MODFILE) $(SCRATCH_DIR)

$(SCRATCH_DIR)/$(TYPESIZES_MODFILE): | $(SCRATCH_DIR)
	cp -f $(NETCDF_INCDIR)/$(TYPESIZES_MODFILE) $(SCRATCH_DIR)

$(SCRATCH_DIR)/MakeDepend: makefile \
                           $(SCRATCH_DIR)/$(NETCDF_MODFILE) \
                           $(SCRATCH_DIR)/$(TYPESIZES_MODFILE) \
                           | $(SCRATCH_DIR)
	$(SFMAKEDEPEND) $(MDEPFLAGS) $(sources) > $(SCRATCH_DIR)/MakeDepend
	cp -f $(CURDIR)/$(MAKE_MACROS) $(SCRATCH_DIR)
#	cp -p $(CURDIR)/$(MAKE_MACROS) $(SCRATCH_DIR)

.PHONY: depend

SFMAKEDEPEND := ./ROMS/Bin/sfmakedepend

depend: $(SCRATCH_DIR)
	$(SFMAKEDEPEND) $(MDEPFLAGS) $(sources) > $(SCRATCH_DIR)/MakeDepend 

ifneq "$(MAKECMDGOALS)" "clean"
  -include $(SCRATCH_DIR)/MakeDepend
endif

#--------------------------------------------------------------------------
#  Target to create ROMS/TOMS tar file.
#--------------------------------------------------------------------------

.PHONY: tarfile

tarfile:
		tar --exclude=".svn" -cvf roms-3_0.tar *

.PHONY: zipfile

zipfile:
		zip -r roms-3_0.zip *

.PHONY: gzipfile

gzipfile:
		gzip -v roms-3_0.gzip *

#--------------------------------------------------------------------------
#  Cleaning targets.
#--------------------------------------------------------------------------

.PHONY: clean

clean:
	$(RM) -r $(clean_list)
	cd Gridpak ; make clean 
	cd Initial ; make clean 
	cd Boundary ; make clean 
	cd Forcing ; make clean 
	cd src/rmtn ; make clean 
	cd Utils   ; make clean

.PHONY: rm_macros

rm_macros:
	$(RM) -r $(CURDIR)/$(MAKE_MACROS)

#--------------------------------------------------------------------------
#  A handy debugging target. This will allow to print the value of any
#  makefile defined macro (see http://tinyurl.com/8ax3j). For example,
#  to find the value of CPPFLAGS execute:
#
#        gmake print-CPPFLAGS
#  or
#        make print-CPPFLAGS
#--------------------------------------------------------------------------

.PHONY: print-%

print-%:
	@echo $* = $($*)
